18
#src_path:/home/uccawkj/PbF2_tmp/VibCheck/n6/STAR/geometry.in.next_step -3572546.220139781
  F    2.226218    3.918821    1.304225
  F    3.653100    2.047560    4.678412
  F    4.315121    4.512680    2.978187
  F    1.564264    1.453613    3.004451
  F    5.727260    0.484312    3.936217
  F    0.151942    5.481963    2.046412
  F    1.438367    4.032370    3.928234
  F    4.440929    1.933907    2.054433
  F    3.772835    6.086692    0.850803
  F   -0.681342    2.378269    4.187341
  F    2.106595   -0.120376    5.131749
  F    6.560792    3.587916    1.795592
 Pb    0.106000    3.179774    2.173484
 Pb    5.773269    2.786472    3.809399
 Pb    3.533256    0.107895    3.334507
 Pb    2.345988    5.858427    2.647875
 Pb    4.557748    3.923296    0.703256
 Pb    1.321793    2.042998    5.279542
