	18
SCF DONE -152.616311421
 F    2.251098    3.823601    1.331412
 F    3.627763    2.144998    4.650961
 F    4.254740    4.470899    3.046851
 F    1.625796    1.496349    2.934962
 F    5.630720    0.569324    3.905184
 F    0.246601    5.397065    2.078488
 F    1.536405    4.017039    3.944572
 F    4.341287    1.949723    2.038194
 F    3.744488    5.981232    0.923399
 F   -0.557794    2.396444    4.146749
 F    2.136896   -0.014143    5.058896
 F    6.438102    3.565066    1.836386
Pb    0.205945    3.125163    2.133734
Pb    5.672895    2.841011    3.850157
Pb    3.491528    0.180150    3.244810
Pb    2.387185    5.786201    2.736002
Pb    4.474830    3.838104    0.723949
Pb    1.405648    2.128365    5.259414
