 24
SCF Done            -429.30402352
Sn            0.897485739         3.261040115         1.587113499
Sn            3.758925567         1.175807601         0.259294552
Sn            0.799174000        -0.133977000         0.292867000
Sn           -1.696092609         1.044334216         1.986439569
Sn            2.960228969        -2.644368723         1.543336680
Sn           -2.390281366        -0.715772942        -1.015188258
Sn            1.103987954         0.122156764        -2.919340414
Sn           -1.414601436         2.343454774        -1.181042732
Sn            1.458873715         0.811819717         3.593228041
Sn            0.905437240        -3.459842675        -0.916771197
Sn           -0.761531694        -2.217296202         2.287014252
Sn            3.553038084        -1.553271685        -1.536816562
O             0.909302001        -2.551613286         1.002278899
O            -0.691880971         0.435512099        -1.686519607
O             2.837263526        -3.207846714        -0.390512969
O             1.438801124        -1.672986180        -1.862660967
O             2.577029697         0.643007830        -1.449631590
O            -1.453192459        -1.038404477         0.789561086
O             2.113975784         1.549057242         1.672803794
O             3.408654760        -0.891220818         0.495754916
O            -0.428594835         2.077035948         0.585450192
O             0.143469922         2.195753198         3.033388166
O            -2.596857719         1.108214756        -0.247480411
O             0.103500233        -0.420608276         2.653317994
