   24
SCF Done            -429.71129981
Sn            3.912095532        -1.349005576         2.990914917
Sn           -4.580623003        -3.049941282        -0.524462807
Sn           -5.633861374        -0.170883960         0.528786150
Sn           -1.446907420         0.798247894         2.324809032
Sn           -0.339143948        -2.229855737         1.217034231
Sn            4.962276812        -0.054788392         5.819274125
Sn           -3.525116947        -1.894758115         2.361529792
Sn            5.853416966         1.298320316         3.011680559
Sn            1.662266821         0.438737685         1.170247413
Sn            0.724993280        -0.984420414         4.123187644
Sn           -2.575425895        -0.452745087        -0.630533092
Sn            2.789656408         1.719216717         4.113366501
O             4.911637036         1.653200157         4.755074237
O            -3.577512522        -0.079508678         1.225516318
O            -2.758609350        -2.318004065         0.406604882
O            -1.177932976        -1.218145007         2.859167130
O             3.815100596         0.736137971         2.510112651
O            -4.670423025        -1.091231370        -0.980206159
O             5.683424511        -0.456504721         3.983278343
O             1.540074000        -1.377141000         2.224467000
O            -5.323429147        -2.082757302         1.077131624
O            -0.501332907        -0.190794073         0.727495349
O             0.740400582         0.808789671         3.024148816
O             3.122230381        -0.315917365         4.693044263
