	24
SCF DONE -424.174091278
 O   -0.943775    0.906116    0.761576
 O    0.510050   -0.790773   -1.514056
 O    2.241444    1.936971    2.028328
 O    3.695269    0.240082   -0.247304
 O    1.227626   -1.086441    1.980703
 O   -0.375068    3.163929    2.551641
 O    0.817375   -3.259024    0.047575
 O    3.126562   -2.017731   -2.037369
 O    1.934119    4.405222    0.466697
 O    3.798061   -2.294414    1.232981
 O    1.523869    2.232639   -1.466431
 O   -1.046566    3.440612   -0.718709
Pb   -0.639207    1.330805   -1.523695
Pb    1.158923   -2.978489   -2.097874
Pb    1.592571    4.124687    2.612146
Pb    0.244738    0.966586    2.781320
Pb    3.390701   -0.184607    2.037967
Pb    0.771091    4.463169   -1.388650
Pb    3.284762    2.600755    0.036706
Pb   -0.533268   -1.454557    0.477566
Pb    2.506756    0.179612   -2.267048
Pb   -2.054130    2.944446    1.162014
Pb    1.980403   -3.316970    1.902923
Pb    4.805625   -1.798248   -0.647742
