      24
SCF Done            -411.83403209
O             0.044479424         1.505419629         0.609360822
O             0.704332378        -0.815109410        -2.128108687
O             2.047172213         1.961297337         2.642368089
O             2.707013000        -0.359221000        -0.095092000
O             1.645793644        -1.203016032         2.457072190
O            -0.092235954         3.248988015         3.137250277
O             1.866174046        -3.015271615        -0.147149856
O             2.843740408        -2.102798727        -2.622974850
O             0.885318938         4.161466958         0.661425232
O             3.764320808        -2.482109420         1.860516627
O             1.105694893         2.349235510        -1.942800410
O            -1.012838929         3.628310545        -1.346234153
Pb           -0.806731775         1.417235527        -1.705641578
Pb            1.028458981        -3.000147139        -2.378867534
Pb            1.723041324         4.146334747         2.893138856
Pb            0.164747200         1.016940393         3.025659917
Pb            3.558225544        -0.271026162         2.219910924
Pb            0.781811803         4.534165333        -1.690793286
Pb            2.187566808         2.195011730         0.227658909
Pb            0.563924075        -1.048806109         0.286601054
Pb            2.586759630         0.129242710        -2.511392387
Pb           -1.199548686         3.504678476         1.033947197
Pb            1.969664834        -3.387951257         2.205074545
Pb            3.951048825        -2.358499371        -0.519665281
