	15
SCF DONE -127.444081144
 F    2.338272    2.082487    2.540695
 F    0.602541    2.505466    4.640604
 F    0.566522    3.922921    2.285325
 F    3.496498    3.608973    4.944963
 F    4.398943    2.767796    1.172301
 F    1.608561   -0.382251    2.577820
 F    2.787651    1.197949   -0.085705
 F    3.123291    4.702300    2.526683
 F    0.270114    1.955526    0.646529
 F    4.812501    1.238212    3.418245
Pb    2.119602    3.280516    0.548646
Pb    3.615601    0.264432    1.761335
Pb    4.938588    3.449043    3.237485
Pb    0.125768    1.313126    2.776029
Pb    1.557728    4.466724    4.219503
