	15
SCF DONE -127.446163837
 F    2.341841    2.092431    2.542214
 F    0.606138    2.515924    4.641656
 F    0.570914    3.933878    2.286673
 F    3.500036    3.618994    4.946581
 F    4.402269    2.779899    1.173653
 F    1.611292   -0.372446    2.579035
 F    2.791786    1.208199   -0.083704
 F    3.127108    4.713294    2.528958
 F    0.273948    1.965956    0.648266
 F    4.815906    1.248764    3.418853
Pb    2.123537    3.290852    0.550270
Pb    3.618500    0.274032    1.763194
Pb    4.942059    3.459499    3.239038
Pb    0.129201    1.323455    2.777418
Pb    1.561445    4.477080    4.221179
