	20
SCF DONE -351.303165246
 O    3.072843   -0.060898    0.128086
 O   -1.455039    0.727953   -1.786946
 O    0.762581    2.641033    0.103187
 O    2.120979    1.487601    2.693699
 O    0.567712   -1.704667    1.516400
 O    3.645481    2.772381    0.661488
 O   -1.263077    0.436624    1.496857
 O   -1.382118   -1.565278   -3.624247
 O    0.855344   -1.973875   -1.762293
 O   -2.177560   -2.221266   -0.970645
Pb   -0.820705   -3.357238   -2.379438
Pb   -3.076292   -0.719460   -2.403499
Pb    2.202862   -2.140277    0.039142
Pb    0.252739   -0.161648   -3.003292
Pb    2.548696    1.818881   -1.046264
Pb   -1.425929    2.103897    0.000379
Pb    4.144979    0.927148    1.853743
Pb    0.421118    0.036787    2.983950
Pb    1.889508    3.565022    1.829449
Pb   -1.688831   -1.783633    1.185336
