	15
 SCF DONE -127.554978
  F    4.477736    2.318331    4.042743
  F    1.160494    1.005696    4.031337
  F    2.465783    2.238184    2.050393
  F    3.091154   -0.176240    1.318729
  F    0.039481    1.594840    1.130995
  F    0.926801    4.386652    1.417688
  F    2.983793    6.104584    2.634272
  F    2.685472    3.258835   -0.584133
  F    2.008897    3.818052    4.211808
  F    4.411240    4.065082    1.666556
 Pb    1.933250    1.265249    0.016205
 Pb    3.259471    0.568472    3.447392
 Pb    2.788299    5.174304    0.569231
 Pb    0.378356    2.885896    2.988973
 Pb    4.057246    4.507960    3.845337


# DONE BY HPC / Intel(R) Xeon(R) CPU E5-2650 v3 @ 2.30GHz ~ 126 sec
