	15
SCF DONE -127.552653961
 F    4.477598    2.318675    4.043244
 F    1.160343    1.005709    4.031589
 F    2.465695    2.237915    2.050523
 F    3.091838   -0.176402    1.319068
 F    0.039554    1.594504    1.130809
 F    0.926725    4.386675    1.417658
 F    2.984161    6.105087    2.633768
 F    2.685385    3.258673   -0.584326
 F    2.008527    3.818459    4.211563
 F    4.410971    4.064824    1.666512
Pb    1.933683    1.264837    0.016284
Pb    3.259573    0.568524    3.447810
Pb    2.788257    5.174317    0.568881
Pb    0.378145    2.885737    2.988809
Pb    4.057096    4.508334    3.845309
