	15
SCF DONE	 -114.756017
Pb	    1.277333	    0.724840	   -0.288693
F	    3.261575	    3.126385	    3.091693
F	    2.095648	    0.954487	    4.887365
Pb	    3.485391	    0.700388	    2.952361
F	    1.206181	    1.447621	    2.124815
F	    3.186224	   -0.329726	    0.831323
Pb	    3.311687	    4.564186	    0.872354
F	   -0.588940	   -0.046569	   -1.431275
F	    1.576456	    4.837486	    2.650146
Pb	    0.952319	    2.974848	    4.122824
F	    3.619438	    6.746110	    1.911346
F	    2.541869	    2.787070	   -0.537986
Pb	    3.656417	    5.518285	    3.998093
F	    2.037590	    4.633743	    5.556968
F	    5.211275	    4.439018	    2.434089
