        24
 SCF DONE -424.128752
  O    5.800725    1.311925    5.692651
  O    8.026865   -0.521107    5.093725
  O    6.274001    3.286943    3.369032
  O    4.841970   10.088179    1.835371
  O    7.878855    0.587856    7.650247
  O    6.129556    4.373923    5.876764
  O    4.048705    5.254849    3.882524
  O    2.272328    9.043607    2.140862
  O    4.468627    7.184448    1.511612
  O    4.318919    8.318471    4.130652
  O    8.432389    2.381916    5.380787
  O    6.568983    6.279429    3.583279
 Pb    4.477433    3.123135    4.830195
 Pb    5.404983    5.028114    2.012228
 Pb    6.394612   -0.734094    6.614635
 Pb    2.672299    6.985429    3.054289
 Pb    3.596702    8.984858    0.333715
 Pb    5.207815    6.516824    5.448939
 Pb    6.166644    8.405970    2.639045
 Pb    7.191396    1.148644    3.772843
 Pb    9.615108    0.575303    6.233026
 Pb    3.413599   10.372468    3.538828
 Pb    6.990343    2.656658    7.249375
 Pb    7.930973    4.527180    4.420518
