	24
SCF DONE -449.588591220
 O    2.067530   -1.521374   -1.025394
 O    4.917943   -0.003941   -0.726793
 O   -4.917943    0.003941    0.726793
 O   -2.067529    1.521374    1.025394
 O   -3.749113    1.611448   -1.086128
 O    0.782293    0.003664    1.481874
 O   -2.068757   -1.514171    1.033547
 O   -3.750417   -1.614226   -1.077464
 O    3.749113   -1.611448    1.086128
 O   -0.782293   -0.003664   -1.481874
 O    3.750418    1.614226    1.077464
 O    2.068757    1.514171   -1.033547
Sn    1.676511    1.849592    1.027986
Sn    1.204685   -0.006363   -2.187775
Sn   -1.676510   -1.849592   -1.027986
Sn    1.675016   -1.845399    1.037910
Sn   -1.675016    1.845399   -1.037910
Sn    4.999753    0.001822    1.431305
Sn   -1.204685    0.006363    2.187775
Sn    4.130000   -1.909774   -0.986641
Sn   -4.130000    1.909774    0.986641
Sn   -4.131541   -1.901105    0.996876
Sn    4.131542    1.901105   -0.996876
Sn   -4.999752   -0.001822   -1.431305
